<?xml version="1.0" encoding="UTF-8"?>

<!-- generated on 2024-11-22 11:53:06 by Eclipse SUMO sumo Version 1.20.0
-->

<configuration xmlns:xsi="http://www.w3.org/2001/XMLSchema-instance" xsi:noNamespaceSchemaLocation="http://sumo.dlr.de/xsd/sumoConfiguration.xsd">

    <input>
        <net-file value="SUMO2Unity.net.xml"/>
        <route-files value="SUMO2Unity.rou.xml,SUMO2UnityPed.rou.xml"/>
    </input>

</configuration>
