<?xml version="1.0" encoding="UTF-8"?>

<!-- generated on 2025-02-10 15:25:33 by Eclipse SUMO netedit Version 1.20.0
<configuration xmlns:xsi="http://www.w3.org/2001/XMLSchema-instance" xsi:noNamespaceSchemaLocation="http://sumo.dlr.de/xsd/neteditConfiguration.xsd">

    <input>
        <sumo-net-file value="C:\VehicleSim\My project\Assets\_Project\Sumo_Data\SUMO2Unity.net.xml"/>
    </input>

    <output>
        <output-file value="C:\VehicleSim\My project\Assets\_Project\Sumo_Data\SUMO2Unity.net.xml"/>
    </output>

    <processing>
        <geometry.min-radius.fix.railways value="false"/>
        <geometry.max-grade.fix value="false"/>
        <offset.disable-normalization value="true"/>
        <lefthand value="0"/>
    </processing>

    <junctions>
        <no-turnarounds value="true"/>
        <junctions.corner-detail value="5"/>
        <junctions.limit-turn-speed value="5.50"/>
        <rectangular-lane-cut value="0"/>
    </junctions>

    <pedestrian>
        <walkingareas value="0"/>
    </pedestrian>

</configuration>
-->

<net version="1.20" junctionCornerDetail="5" limitTurnSpeed="5.50" xmlns:xsi="http://www.w3.org/2001/XMLSchema-instance" xsi:noNamespaceSchemaLocation="http://sumo.dlr.de/xsd/net_file.xsd">

    <location netOffset="-480129.47,-4769825.85" convBoundary="296.76,1633.95,1625.97,2565.83" origBoundary="-75.244119,43.080903,-75.193417,43.105282" projParameter="+proj=utm +zone=18 +ellps=WGS84 +datum=WGS84 +units=m +no_defs"/>

    <type id="highway.cycleway" priority="1" numLanes="1" speed="5.56" allow="bicycle" oneway="0" width="2.00"/>
    <type id="highway.footway" priority="1" numLanes="1" speed="2.78" allow="pedestrian" oneway="1" width="2.00"/>
    <type id="highway.primary" priority="12" numLanes="2" speed="27.78" disallow="tram rail_urban rail rail_electric rail_fast ship container cable_car subway aircraft wheelchair scooter drone" oneway="0"/>
    <type id="highway.primary_link" priority="7" numLanes="1" speed="22.22" disallow="tram rail_urban rail rail_electric rail_fast ship container cable_car subway aircraft wheelchair scooter drone" oneway="0"/>
    <type id="highway.residential" priority="3" numLanes="1" speed="13.89" disallow="tram rail_urban rail rail_electric rail_fast ship container cable_car subway aircraft wheelchair scooter drone" oneway="0"/>
    <type id="highway.secondary" priority="11" numLanes="1" speed="27.78" disallow="tram rail_urban rail rail_electric rail_fast ship container cable_car subway aircraft wheelchair scooter drone" oneway="0"/>
    <type id="highway.service" priority="1" numLanes="1" speed="5.56" allow="pedestrian delivery bicycle" oneway="0"/>
    <type id="highway.tertiary" priority="10" numLanes="1" speed="22.22" disallow="tram rail_urban rail rail_electric rail_fast ship container cable_car subway aircraft wheelchair scooter drone" oneway="0"/>

    <edge id=":10173062180_0" function="internal">
        <lane id=":10173062180_0_0" index="0" disallow="pedestrian tram rail_urban rail rail_electric rail_fast ship container cable_car subway aircraft wheelchair scooter drone" speed="16.22" length="11.10" shape="1455.52,2354.70 1452.42,2354.01 1450.19,2354.23 1447.94,2354.95 1444.72,2355.76"/>
        <lane id=":10173062180_0_1" index="1" disallow="pedestrian tram rail_urban rail rail_electric rail_fast ship container cable_car subway aircraft wheelchair scooter drone" speed="17.32" length="12.69" shape="1456.54,2351.67 1452.98,2350.83 1450.43,2350.99 1447.84,2351.72 1444.16,2352.61"/>
    </edge>
    <edge id=":10173062180_2" function="internal">
        <lane id=":10173062180_2_0" index="0" disallow="pedestrian tram rail_urban rail rail_electric rail_fast ship container cable_car subway aircraft wheelchair scooter drone" speed="14.30" length="12.14" shape="1456.54,2351.67 1452.97,2350.54 1450.37,2349.60 1448.25,2348.27 1446.14,2345.96"/>
    </edge>
    <edge id=":10173062189_0" function="internal">
        <lane id=":10173062189_0_0" index="0" disallow="pedestrian tram rail_urban rail rail_electric rail_fast ship container cable_car subway aircraft wheelchair scooter drone" speed="10.12" length="5.99" shape="1481.78,2345.33 1481.18,2346.95 1481.11,2348.15 1481.37,2349.40 1481.72,2351.15"/>
    </edge>
    <edge id=":10173062189_1" function="internal">
        <lane id=":10173062189_1_0" index="0" disallow="pedestrian tram rail_urban rail rail_electric rail_fast ship container cable_car subway aircraft wheelchair scooter drone" speed="27.78" length="5.91" shape="1481.78,2345.33 1480.86,2346.92 1479.99,2347.84 1479.01,2348.69 1477.72,2350.05"/>
        <lane id=":10173062189_1_1" index="1" disallow="pedestrian tram rail_urban rail rail_electric rail_fast ship container cable_car subway aircraft wheelchair scooter drone" speed="10.32" length="5.91" shape="1478.89,2343.96 1478.15,2345.41 1477.48,2346.34 1476.60,2347.07 1475.23,2347.97"/>
    </edge>
    <edge id=":10173062191_0" function="internal">
        <lane id=":10173062191_0_0" index="0" disallow="pedestrian tram rail_urban rail rail_electric rail_fast ship container cable_car subway aircraft wheelchair scooter drone" speed="27.78" length="7.39" shape="1247.37,2434.44 1240.73,2437.77"/>
        <lane id=":10173062191_0_1" index="1" disallow="pedestrian tram rail_urban rail rail_electric rail_fast ship container cable_car subway aircraft wheelchair scooter drone" speed="27.78" length="7.39" shape="1245.90,2431.60 1239.33,2434.90"/>
    </edge>
    <edge id=":10173062211_0" function="internal">
        <lane id=":10173062211_0_0" index="0" disallow="pedestrian tram rail_urban rail rail_electric rail_fast ship container cable_car subway aircraft wheelchair scooter drone" speed="3.81" length="4.58" shape="1169.89,2497.67 1170.25,2499.04 1170.02,2499.89 1169.21,2500.21 1167.81,2500.02"/>
    </edge>
    <edge id=":10173071918_0" function="internal">
        <lane id=":10173071918_0_0" index="0" disallow="pedestrian tram rail_urban rail rail_electric rail_fast ship container cable_car subway aircraft wheelchair scooter drone" speed="22.22" length="5.99" shape="1452.09,2296.92 1453.05,2298.31 1453.74,2299.24 1454.50,2300.11 1455.68,2301.33"/>
        <lane id=":10173071918_0_1" index="1" disallow="pedestrian tram rail_urban rail rail_electric rail_fast ship container cable_car subway aircraft wheelchair scooter drone" speed="22.22" length="5.99" shape="1449.45,2298.73 1450.50,2300.26 1451.26,2301.28 1452.11,2302.24 1453.40,2303.57"/>
    </edge>
    <edge id=":10173071923_0" function="internal">
        <lane id=":10173071923_0_0" index="0" disallow="pedestrian tram rail_urban rail rail_electric rail_fast ship container cable_car subway aircraft wheelchair scooter drone" speed="27.78" length="13.59" shape="1466.49,2311.34 1470.42,2311.97 1473.16,2311.84 1475.93,2311.31 1479.93,2310.72"/>
        <lane id=":10173071923_0_1" index="1" disallow="pedestrian tram rail_urban rail rail_electric rail_fast ship container cable_car subway aircraft wheelchair scooter drone" speed="27.78" length="14.61" shape="1465.79,2314.47 1470.01,2315.15 1472.96,2315.05 1475.94,2314.52 1480.25,2313.91"/>
    </edge>
    <edge id=":10173071923_2" function="internal">
        <lane id=":10173071923_2_0" index="0" disallow="pedestrian tram rail_urban rail rail_electric rail_fast ship container cable_car subway aircraft wheelchair scooter drone" speed="16.44" length="14.21" shape="1465.79,2314.47 1470.15,2315.52 1473.38,2316.60 1475.99,2318.05 1478.52,2320.21"/>
    </edge>
    <edge id=":10173071926_0" function="internal">
        <lane id=":10173071926_0_0" index="0" disallow="pedestrian tram rail_urban rail rail_electric rail_fast ship container cable_car subway aircraft wheelchair scooter drone" speed="27.78" length="6.97" shape="1424.00,2341.03 1425.76,2340.05 1426.96,2339.35 1428.11,2338.59 1429.78,2337.44"/>
        <lane id=":10173071926_0_1" index="1" disallow="pedestrian tram rail_urban rail rail_electric rail_fast ship container cable_car subway aircraft wheelchair scooter drone" speed="27.78" length="6.97" shape="1425.56,2343.83 1427.41,2342.80 1428.65,2342.06 1429.87,2341.27 1431.61,2340.07"/>
    </edge>
    <edge id=":10173071932_0" function="internal">
        <lane id=":10173071932_0_0" index="0" disallow="pedestrian tram rail_urban rail rail_electric rail_fast ship container cable_car subway aircraft wheelchair scooter drone" speed="27.78" length="5.38" shape="1486.66,2310.06 1491.90,2309.37"/>
        <lane id=":10173071932_0_1" index="1" disallow="pedestrian tram rail_urban rail rail_electric rail_fast ship container cable_car subway aircraft wheelchair scooter drone" speed="27.78" length="5.38" shape="1486.98,2313.25 1492.42,2312.53"/>
    </edge>
    <edge id=":10173071940_0" function="internal">
        <lane id=":10173071940_0_0" index="0" disallow="pedestrian tram rail_urban rail rail_electric rail_fast ship container cable_car subway aircraft wheelchair scooter drone" speed="27.78" length="5.61" shape="1499.67,2324.79 1498.41,2325.73 1497.58,2326.43 1496.82,2327.19 1495.75,2328.34"/>
        <lane id=":10173071940_0_1" index="1" disallow="pedestrian tram rail_urban rail rail_electric rail_fast ship container cable_car subway aircraft wheelchair scooter drone" speed="27.78" length="5.61" shape="1497.77,2322.22 1496.36,2323.27 1495.44,2324.04 1494.59,2324.89 1493.40,2326.18"/>
    </edge>
    <edge id=":10173071945_0" function="internal">
        <lane id=":10173071945_0_0" index="0" disallow="pedestrian tram rail_urban rail rail_electric rail_fast ship container cable_car subway aircraft wheelchair scooter drone" speed="22.22" length="9.11" shape="1440.74,2312.96 1439.25,2304.04"/>
        <lane id=":10173071945_0_1" index="1" disallow="pedestrian tram rail_urban rail rail_electric rail_fast ship container cable_car subway aircraft wheelchair scooter drone" speed="22.22" length="9.11" shape="1443.90,2312.47 1442.39,2303.43"/>
    </edge>
    <edge id=":10661113517_0" function="internal">
        <lane id=":10661113517_0_0" index="0" disallow="pedestrian tram rail_urban rail rail_electric rail_fast ship container cable_car subway aircraft wheelchair scooter drone" speed="13.89" length="0.10" shape="1164.15,2184.97 1164.15,2184.97"/>
    </edge>
    <edge id=":10661113517_1" function="internal">
        <lane id=":10661113517_1_0" index="0" disallow="pedestrian tram rail_urban rail rail_electric rail_fast ship container cable_car subway aircraft wheelchair scooter drone" speed="13.89" length="0.10" shape="1166.89,2183.33 1166.89,2183.33"/>
    </edge>
    <edge id=":11237303834_0" function="internal">
        <lane id=":11237303834_0_0" index="0" allow="bicycle" speed="16.67" length="9.03" width="2.00" shape="1541.26,2289.51 1543.95,2289.47 1545.82,2289.51 1547.63,2289.28 1550.12,2288.40"/>
    </edge>
    <edge id=":11237303834_1" function="internal">
        <lane id=":11237303834_1_0" index="0" disallow="pedestrian tram rail_urban rail rail_electric rail_fast ship container cable_car subway aircraft wheelchair scooter drone" speed="27.78" length="9.01" shape="1542.07,2292.48 1550.36,2288.95"/>
        <lane id=":11237303834_1_1" index="1" disallow="pedestrian tram rail_urban rail rail_electric rail_fast ship container cable_car subway aircraft wheelchair scooter drone" speed="27.78" length="9.01" shape="1543.32,2295.42 1551.61,2291.90"/>
    </edge>
    <edge id=":11237303836_0" function="internal">
        <lane id=":11237303836_0_0" index="0" allow="bicycle" speed="8.66" length="5.84" width="2.00" shape="1531.44,2315.12 1529.94,2315.83 1529.10,2316.65 1528.49,2317.75 1527.70,2319.31"/>
    </edge>
    <edge id=":11237303836_1" function="internal">
        <lane id=":11237303836_1_0" index="0" disallow="pedestrian tram rail_urban rail rail_electric rail_fast ship container cable_car subway aircraft wheelchair scooter drone" speed="27.78" length="5.97" shape="1531.24,2314.56 1525.56,2316.40"/>
        <lane id=":11237303836_1_1" index="1" disallow="pedestrian tram rail_urban rail rail_electric rail_fast ship container cable_car subway aircraft wheelchair scooter drone" speed="27.78" length="5.97" shape="1530.16,2311.55 1524.47,2313.38"/>
    </edge>
    <edge id=":11237333444_0" function="internal">
        <lane id=":11237333444_0_0" index="0" disallow="pedestrian tram rail_urban rail rail_electric rail_fast ship container cable_car subway aircraft wheelchair scooter drone" speed="27.78" length="5.66" shape="1482.89,2358.71 1483.17,2360.37 1483.40,2361.50 1483.68,2362.61 1484.10,2364.24"/>
    </edge>
    <edge id=":11237333446_0" function="internal">
        <lane id=":11237333446_0_0" index="0" disallow="pedestrian tram rail_urban rail rail_electric rail_fast ship container cable_car subway aircraft wheelchair scooter drone" speed="27.78" length="5.75" shape="1474.40,2368.71 1473.65,2367.17 1473.11,2366.12 1472.44,2365.17 1471.31,2363.90"/>
    </edge>
    <edge id=":11237357367_0" function="internal">
        <lane id=":11237357367_0_0" index="0" allow="bicycle" speed="4.72" length="4.22" width="2.00" shape="1507.62,2400.77 1506.59,2401.39 1506.00,2402.16 1505.84,2403.09 1506.11,2404.16"/>
    </edge>
    <edge id=":11237357367_1" function="internal">
        <lane id=":11237357367_1_0" index="0" disallow="pedestrian tram rail_urban rail rail_electric rail_fast ship container cable_car subway aircraft wheelchair scooter drone" speed="13.89" length="5.22" shape="1507.38,2400.22 1502.59,2402.30"/>
    </edge>
    <edge id=":11237357367_2" function="internal">
        <lane id=":11237357367_2_0" index="0" allow="bicycle" speed="4.37" length="4.06" width="2.00" shape="1502.64,2395.35 1503.17,2396.34 1503.88,2396.90 1504.78,2397.03 1505.87,2396.74"/>
    </edge>
    <edge id=":11237357367_3" function="internal">
        <lane id=":11237357367_3_0" index="0" allow="bicycle" speed="5.56" length="9.47" width="2.00" shape="1502.64,2395.35 1506.11,2404.16"/>
    </edge>
    <edge id=":11237357367_4" function="internal">
        <lane id=":11237357367_4_0" index="0" allow="bicycle" speed="6.17" length="8.02" width="2.00" shape="1502.64,2395.35 1503.55,2398.28 1503.88,2400.50 1503.64,2402.03 1502.83,2402.85"/>
    </edge>
    <edge id=":11237357367_5" function="internal">
        <lane id=":11237357367_5_0" index="0" disallow="pedestrian tram rail_urban rail rail_electric rail_fast ship container cable_car subway aircraft wheelchair scooter drone" speed="13.89" length="5.22" shape="1501.32,2399.37 1506.10,2397.29"/>
    </edge>
    <edge id=":11237357367_6" function="internal">
        <lane id=":11237357367_6_0" index="0" allow="bicycle" speed="5.74" length="0.47" width="2.00" shape="1501.55,2399.92 1502.02,2399.87"/>
    </edge>
    <edge id=":11237357367_7" function="internal">
        <lane id=":11237357367_7_0" index="0" allow="bicycle" speed="5.74" length="6.36" width="2.00" shape="1502.02,2399.87 1502.71,2399.81 1503.86,2400.48 1504.99,2401.93 1506.11,2404.16"/>
    </edge>
    <edge id=":11237357377_0" function="internal">
        <lane id=":11237357377_0_0" index="0" disallow="pedestrian tram rail_urban rail rail_electric rail_fast ship container cable_car subway aircraft wheelchair scooter drone" speed="13.89" length="5.00" shape="1486.83,2409.11 1482.23,2411.09"/>
    </edge>
    <edge id=":11237357377_1" function="internal">
        <lane id=":11237357377_1_0" index="0" allow="bicycle" speed="5.82" length="0.46" width="2.00" shape="1486.59,2408.56 1486.14,2408.59"/>
    </edge>
    <edge id=":11237357377_4" function="internal">
        <lane id=":11237357377_4_0" index="0" allow="bicycle" speed="5.82" length="6.35" width="2.00" shape="1486.14,2408.59 1485.50,2408.64 1484.37,2407.96 1483.19,2406.51 1481.97,2404.30"/>
    </edge>
    <edge id=":11237357377_2" function="internal">
        <lane id=":11237357377_2_0" index="0" allow="bicycle" speed="4.57" length="4.05" width="2.00" shape="1480.73,2407.60 1481.69,2407.02 1482.21,2406.27 1482.30,2405.37 1481.97,2404.30"/>
    </edge>
    <edge id=":11237357377_3" function="internal">
        <lane id=":11237357377_3_0" index="0" disallow="pedestrian tram rail_urban rail rail_electric rail_fast ship container cable_car subway aircraft wheelchair scooter drone" speed="13.89" length="5.00" shape="1480.97,2408.15 1485.57,2406.17"/>
    </edge>
    <edge id=":11239958156_0" function="internal">
        <lane id=":11239958156_0_0" index="0" disallow="pedestrian tram rail_urban rail rail_electric rail_fast ship container cable_car subway aircraft wheelchair scooter drone" speed="27.78" length="5.23" shape="1439.00,2356.86 1433.86,2357.85"/>
        <lane id=":11239958156_0_1" index="1" disallow="pedestrian tram rail_urban rail rail_electric rail_fast ship container cable_car subway aircraft wheelchair scooter drone" speed="27.78" length="5.23" shape="1438.40,2353.71 1433.26,2354.71"/>
    </edge>
    <edge id=":11298759945_0" function="internal">
        <lane id=":11298759945_0_0" index="0" allow="pedestrian delivery bicycle" speed="3.65" length="4.67" shape="795.06,2308.44 793.65,2308.13 792.99,2307.53 793.07,2306.64 793.90,2305.46"/>
    </edge>
    <edge id=":11298759946_0" function="internal">
        <lane id=":11298759946_0_0" index="0" disallow="pedestrian tram rail_urban rail rail_electric rail_fast ship container cable_car subway aircraft wheelchair scooter drone" speed="13.89" length="9.74" shape="824.56,2312.78 819.38,2304.53"/>
    </edge>
    <edge id=":11298759946_1" function="internal">
        <lane id=":11298759946_1_0" index="0" allow="delivery bicycle" speed="6.54" length="3.82" shape="824.56,2312.78 823.11,2309.65 823.11,2309.28"/>
    </edge>
    <edge id=":11298759946_7" function="internal">
        <lane id=":11298759946_7_0" index="0" allow="delivery bicycle" speed="6.54" length="7.54" shape="823.11,2309.28 823.10,2307.16 824.52,2305.32 827.38,2304.13"/>
    </edge>
    <edge id=":11298759946_2" function="internal">
        <lane id=":11298759946_2_0" index="0" allow="delivery bicycle" speed="4.57" length="4.88" shape="828.13,2307.24 827.02,2307.74 826.50,2308.54 826.58,2309.66 827.27,2311.08"/>
    </edge>
    <edge id=":11298759946_3" function="internal">
        <lane id=":11298759946_3_0" index="0" allow="delivery bicycle" speed="7.70" length="9.85" shape="828.13,2307.24 825.29,2307.63 822.89,2307.30 820.92,2306.27 819.38,2304.53"/>
    </edge>
    <edge id=":11298759946_4" function="internal">
        <lane id=":11298759946_4_0" index="0" allow="pedestrian delivery bicycle" speed="3.65" length="4.67" shape="828.13,2307.24 826.78,2306.74 826.20,2306.06 826.40,2305.19 827.38,2304.13"/>
    </edge>
    <edge id=":11298759946_5" function="internal">
        <lane id=":11298759946_5_0" index="0" allow="delivery bicycle" speed="6.07" length="5.83" shape="822.09,2302.82 822.95,2303.75 824.12,2304.27 825.59,2304.40 827.38,2304.13"/>
    </edge>
    <edge id=":11298759946_6" function="internal">
        <lane id=":11298759946_6_0" index="0" disallow="pedestrian tram rail_urban rail rail_electric rail_fast ship container cable_car subway aircraft wheelchair scooter drone" speed="13.89" length="9.75" shape="822.09,2302.82 827.27,2311.08"/>
    </edge>
    <edge id=":11298759947_0" function="internal">
        <lane id=":11298759947_0_0" index="0" allow="pedestrian delivery bicycle" speed="3.65" length="4.67" shape="827.57,2304.08 828.93,2304.57 829.50,2305.26 829.31,2306.13 828.33,2307.19"/>
    </edge>
    <edge id=":11298759948_0" function="internal">
        <lane id=":11298759948_0_0" index="0" allow="delivery bicycle" speed="5.20" length="5.20" shape="830.69,2322.55 829.81,2321.54 828.76,2321.04 827.55,2321.07 826.18,2321.62"/>
    </edge>
    <edge id=":11298759948_1" function="internal">
        <lane id=":11298759948_1_0" index="0" disallow="pedestrian tram rail_urban rail rail_electric rail_fast ship container cable_car subway aircraft wheelchair scooter drone" speed="13.89" length="9.41" shape="830.69,2322.55 825.69,2314.58"/>
    </edge>
    <edge id=":11298759948_2" function="internal">
        <lane id=":11298759948_2_0" index="0" disallow="pedestrian tram rail_urban rail rail_electric rail_fast ship container cable_car subway aircraft wheelchair scooter drone" speed="13.89" length="9.41" shape="828.40,2312.88 833.40,2320.85"/>
    </edge>
    <edge id=":11298759948_3" function="internal">
        <lane id=":11298759948_3_0" index="0" allow="delivery bicycle" speed="6.82" length="3.31" shape="828.40,2312.88 829.57,2315.51 829.57,2315.94"/>
    </edge>
    <edge id=":11298759948_7" function="internal">
        <lane id=":11298759948_7_0" index="0" allow="delivery bicycle" speed="6.82" length="7.10" shape="829.57,2315.94 829.58,2317.84 828.45,2319.88 826.18,2321.62"/>
    </edge>
    <edge id=":11298759948_4" function="internal">
        <lane id=":11298759948_4_0" index="0" allow="delivery bicycle" speed="4.99" length="5.06" shape="824.61,2318.84 825.72,2317.99 826.27,2316.99 826.26,2315.86 825.69,2314.58"/>
    </edge>
    <edge id=":11298759948_5" function="internal">
        <lane id=":11298759948_5_0" index="0" allow="delivery bicycle" speed="6.99" length="10.18" shape="824.61,2318.84 827.25,2317.79 829.59,2317.78 831.64,2318.80 833.40,2320.85"/>
    </edge>
    <edge id=":11298759948_6" function="internal">
        <lane id=":11298759948_6_0" index="0" allow="pedestrian delivery bicycle" speed="3.65" length="4.67" shape="824.61,2318.84 826.05,2318.94 826.79,2319.45 826.83,2320.34 826.18,2321.62"/>
    </edge>
    <edge id=":11298759949_0" function="internal">
        <lane id=":11298759949_0_0" index="0" allow="pedestrian delivery bicycle" speed="3.65" length="4.67" shape="805.83,2333.05 804.40,2332.93 803.65,2332.43 803.61,2331.54 804.27,2330.25"/>
    </edge>
    <edge id=":11298759950_0" function="internal">
        <lane id=":11298759950_0_0" index="0" disallow="pedestrian tram rail_urban rail rail_electric rail_fast ship container cable_car subway aircraft wheelchair scooter drone" speed="13.89" length="0.10" shape="668.95,2390.05 668.95,2390.05"/>
    </edge>
    <edge id=":11298759950_1" function="internal">
        <lane id=":11298759950_1_0" index="0" disallow="pedestrian tram rail_urban rail rail_electric rail_fast ship container cable_car subway aircraft wheelchair scooter drone" speed="13.89" length="0.10" shape="671.91,2388.81 671.91,2388.81"/>
    </edge>
    <edge id=":11298773661_0" function="internal">
        <lane id=":11298773661_0_0" index="0" disallow="pedestrian tram rail_urban rail rail_electric rail_fast ship container cable_car subway aircraft wheelchair scooter drone" speed="22.22" length="0.10" shape="832.59,2378.32 832.59,2378.32"/>
    </edge>
    <edge id=":11298773661_1" function="internal">
        <lane id=":11298773661_1_0" index="0" disallow="pedestrian tram rail_urban rail rail_electric rail_fast ship container cable_car subway aircraft wheelchair scooter drone" speed="22.22" length="0.10" shape="831.35,2375.36 831.35,2375.36"/>
    </edge>
    <edge id=":11298781634_0" function="internal">
        <lane id=":11298781634_0_0" index="0" disallow="pedestrian tram rail_urban rail rail_electric rail_fast ship container cable_car subway aircraft wheelchair scooter drone" speed="3.65" length="4.67" shape="601.80,2475.25 600.39,2474.97 599.71,2474.38 599.77,2473.49 600.58,2472.29"/>
    </edge>
    <edge id=":11359588020_0" function="internal">
        <lane id=":11359588020_0_0" index="0" disallow="pedestrian tram rail_urban rail rail_electric rail_fast ship container cable_car subway aircraft wheelchair scooter drone" speed="13.89" length="0.10" shape="931.65,2486.75 931.65,2486.75"/>
    </edge>
    <edge id=":11359588020_1" function="internal">
        <lane id=":11359588020_1_0" index="0" disallow="pedestrian tram rail_urban rail rail_electric rail_fast ship container cable_car subway aircraft wheelchair scooter drone" speed="13.89" length="0.10" shape="934.39,2485.09 934.39,2485.09"/>
    </edge>
    <edge id=":12015904671_0" function="internal">
        <lane id=":12015904671_0_0" index="0" disallow="pedestrian tram rail_urban rail rail_electric rail_fast ship container cable_car subway aircraft wheelchair scooter drone" speed="22.22" length="5.01" shape="1108.73,2232.62 1105.00,2235.97"/>
    </edge>
    <edge id=":12015904671_1" function="internal">
        <lane id=":12015904671_1_0" index="0" disallow="pedestrian tram rail_urban rail rail_electric rail_fast ship container cable_car subway aircraft wheelchair scooter drone" speed="22.22" length="5.02" shape="1102.86,2233.59 1106.60,2230.23"/>
    </edge>
    <edge id=":12015904672_0" function="internal">
        <lane id=":12015904672_0_0" index="0" disallow="pedestrian tram rail_urban rail rail_electric rail_fast ship container cable_car subway aircraft wheelchair scooter drone" speed="3.65" length="4.67" shape="1121.59,2247.29 1120.18,2246.99 1119.51,2246.40 1119.58,2245.51 1120.40,2244.32"/>
    </edge>
    <edge id=":12015904674_0" function="internal">
        <lane id=":12015904674_0_0" index="0" disallow="tram rail_urban rail rail_electric rail_fast ship container cable_car subway aircraft wheelchair scooter drone" speed="13.89" length="5.00" shape="822.22,2241.80 817.99,2244.48"/>
    </edge>
    <edge id=":12015904677_0" function="internal">
        <lane id=":12015904677_0_0" index="0" allow="delivery bicycle" speed="5.56" length="5.72" shape="966.07,2330.74 963.23,2325.78"/>
    </edge>
    <edge id=":12015904677_1" function="internal">
        <lane id=":12015904677_1_0" index="0" disallow="pedestrian tram rail_urban rail rail_electric rail_fast ship container cable_car subway aircraft wheelchair scooter drone" speed="3.65" length="1.44" shape="966.07,2330.74 966.17,2329.30"/>
    </edge>
    <edge id=":12015904677_4" function="internal">
        <lane id=":12015904677_4_0" index="0" disallow="pedestrian tram rail_urban rail rail_electric rail_fast ship container cable_car subway aircraft wheelchair scooter drone" speed="3.65" length="3.23" shape="966.17,2329.30 966.67,2328.55 967.56,2328.50 968.85,2329.15"/>
    </edge>
    <edge id=":12015904677_2" function="internal">
        <lane id=":12015904677_2_0" index="0" allow="delivery bicycle" speed="5.56" length="5.71" shape="966.01,2324.19 968.85,2329.15"/>
    </edge>
    <edge id=":12015904677_3" function="internal">
        <lane id=":12015904677_3_0" index="0" allow="pedestrian delivery bicycle" speed="3.65" length="1.44" shape="966.01,2324.19 965.91,2325.62"/>
    </edge>
    <edge id=":12015904677_5" function="internal">
        <lane id=":12015904677_5_0" index="0" allow="pedestrian delivery bicycle" speed="3.65" length="3.23" shape="965.91,2325.62 965.42,2326.37 964.52,2326.42 963.23,2325.78"/>
    </edge>
    <edge id=":12015904679_0" function="internal">
        <lane id=":12015904679_0_0" index="0" allow="delivery bicycle" speed="5.56" length="5.18" shape="939.44,2341.90 937.25,2337.21"/>
    </edge>
    <edge id=":12015904679_1" function="internal">
        <lane id=":12015904679_1_0" index="0" disallow="pedestrian tram rail_urban rail rail_electric rail_fast ship container cable_car subway aircraft wheelchair scooter drone" speed="3.65" length="1.44" shape="939.44,2341.90 939.65,2340.48"/>
    </edge>
    <edge id=":12015904679_4" function="internal">
        <lane id=":12015904679_4_0" index="0" disallow="pedestrian tram rail_urban rail rail_electric rail_fast ship container cable_car subway aircraft wheelchair scooter drone" speed="3.65" length="3.23" shape="939.65,2340.48 940.21,2339.78 941.10,2339.80 942.34,2340.55"/>
    </edge>
    <edge id=":12015904679_2" function="internal">
        <lane id=":12015904679_2_0" index="0" allow="delivery bicycle" speed="5.56" length="5.17" shape="940.15,2335.86 942.34,2340.55"/>
    </edge>
    <edge id=":12015904679_3" function="internal">
        <lane id=":12015904679_3_0" index="0" allow="pedestrian delivery bicycle" speed="3.65" length="1.44" shape="940.15,2335.86 939.93,2337.29"/>
    </edge>
    <edge id=":12015904679_5" function="internal">
        <lane id=":12015904679_5_0" index="0" allow="pedestrian delivery bicycle" speed="3.65" length="3.23" shape="939.93,2337.29 939.37,2337.99 938.48,2337.96 937.25,2337.21"/>
    </edge>
    <edge id=":12015904685_0" function="internal">
        <lane id=":12015904685_0_0" index="0" disallow="pedestrian tram rail_urban rail rail_electric rail_fast ship container cable_car subway aircraft wheelchair scooter drone" speed="3.65" length="4.67" shape="1058.31,2322.19 1058.35,2320.75 1058.82,2319.99 1059.71,2319.90 1061.02,2320.50"/>
    </edge>
    <edge id=":12015904691_0" function="internal">
        <lane id=":12015904691_0_0" index="0" disallow="pedestrian tram rail_urban rail rail_electric rail_fast ship container cable_car subway aircraft wheelchair scooter drone" speed="13.89" length="5.07" shape="786.66,2251.63 783.90,2247.38"/>
    </edge>
    <edge id=":12015904691_1" function="internal">
        <lane id=":12015904691_1_0" index="0" disallow="pedestrian tram rail_urban rail rail_electric rail_fast ship container cable_car subway aircraft wheelchair scooter drone" speed="13.89" length="5.07" shape="786.59,2245.64 789.34,2249.89"/>
    </edge>
    <edge id=":12015904697_0" function="internal">
        <lane id=":12015904697_0_0" index="0" allow="pedestrian delivery bicycle" speed="5.56" length="5.28" shape="825.27,2322.13 820.67,2324.72"/>
    </edge>
    <edge id=":12015904697_1" function="internal">
        <lane id=":12015904697_1_0" index="0" allow="pedestrian delivery bicycle" speed="3.65" length="1.44" shape="825.27,2322.13 823.84,2322.02"/>
    </edge>