<routes xmlns:xsi="http://www.w3.org/2001/XMLSchema-instance" xsi:noNamespaceSchemaLocation="http://sumo.dlr.de/xsd/routes_file.xsd">

    <!-- Pedestrian flows -->
	
    <personFlow id="pFlow1" begin="0" end="10000" number="400">
        <walk edges="-20146573#2 -20146573#1 862365722 862365668#0 862365668#1 862365692#1 862365678#1 862365678#0 862365685 862365683#0 862365683#1 1084114760#0"/>
    </personFlow>




</routes>