<routes xmlns:xsi="http://www.w3.org/2001/XMLSchema-instance" xsi:noNamespaceSchemaLocation="http://sumo.dlr.de/xsd/routes_file.xsd">

    <!-- Pedestrian flows -->
	
    <!-- Initial pedestrians for populating sidewalks -->
    <personFlow id="pFlow1" begin="0" end="10" number="3">
        <walk edges="862365722 862365668#0 862365668#1 862365692#1 862365678#1 862365678#0 862365685 862365683#0 862365683#1 1084114760#1"/>
    </personFlow>
    <personFlow id="pFlow2" begin="0" end="10" number="3">
        <walk edges="862365668#1 862365692#1 862365678#1 862365678#0 862365685 862365683#0 862365683#1 1084114760#1"/>
    </personFlow>
    <personFlow id="pFlow3" begin="0" end="10" number="3">
        <walk edges="862365678#1 862365678#0 862365685 862365683#0 862365683#1 1084114760#1"/>
    </personFlow>

   <personFlow id="pFlow4" begin="0" end="10" number="3">
        <walk edges="862365683#1 862365683#0 862365685 862365678#0 862365678#1 862365692#1 862365668#1 862365668#0 862365722 -20146573#1 -20146573#2"/>
    </personFlow>
   <personFlow id="pFlow5" begin="0" end="10" number="3">
        <walk edges="862365685 862365678#0 862365678#1 862365692#1 862365668#1 862365668#0 862365722 -20146573#1 -20146573#2"/>
    </personFlow>
   <personFlow id="pFlow6" begin="0" end="10" number="3">
        <walk edges="862365678#1 862365692#1 862365668#1 862365668#0 862365722 -20146573#1 -20146573#2"/>
    </personFlow>

    <personFlow id="pFlow7" begin="0" end="10" number="3">
        <walk edges="862365731#3 862365669#1 862365669#0 862365709 862365706#1 862365706#0 862365675#0 862365675#1 1084114753#0 1084114753#1 1084114762 1084114753#5 1084114753#6"/>
    </personFlow>
   <personFlow id="pFlow8" begin="0" end="10" number="3">
        <walk edges="862365709 862365706#1 862365706#0 862365675#0 862365675#1 1084114753#0 1084114753#1 1084114762 1084114753#5 1084114753#6"/>
    </personFlow>
   <personFlow id="pFlow9" begin="0" end="10" number="3">
        <walk edges="862365706#0 862365675#0 862365675#1 1084114753#0 1084114753#1 1084114762 1084114753#5 1084114753#6"/>
    </personFlow>

    <personFlow id="pFlow10" begin="0" end="10" number="3">
        <walk edges="1084114753#1 1084114753#0 862365675#1 862365675#0 862365706#0 862365706#1 862365709 862365669#0 862365669#1 862365731#3 862365731#2"/>
    </personFlow>
   <personFlow id="pFlow11" begin="0" end="10" number="3">
        <walk edges="862365675#1 862365675#0 862365706#0 862365706#1 862365709 862365669#0 862365669#1 862365731#3 862365731#2"/>
    </personFlow>
   <personFlow id="pFlow12" begin="0" end="10" number="3">
        <walk edges="862365706#0 862365706#1 862365709 862365669#0 862365669#1 862365731#3 862365731#2"/>
    </personFlow>


    <!-- Long-term flows -->
    <personFlow id="pFlow13" begin="0" end="10000" number="400">
        <walk edges="-20146573#2 -20146573#1 862365722 862365668#0 862365668#1 862365692#1 862365678#1 862365678#0 862365685 862365683#0 862365683#1 1084114760#1"/>
    </personFlow>
    <personFlow id="pFlow14" begin="0" end="10000" number="400">
        <walk edges="1084114760#1 862365683#1 862365683#0 862365685 862365678#0 862365678#1 862365692#1 862365668#1 862365668#0 862365722 -20146573#1 -20146573#2"/>
    </personFlow>
    <personFlow id="pFlow15" begin="0" end="10000" number="400">
        <walk edges="862365731#2 862365731#3 862365669#1 862365669#0 862365709 862365706#1 862365706#0 862365675#0 862365675#1 1084114753#0 1084114753#1 1084114762 1084114753#5 1084114753#6"/>
    </personFlow>
    <personFlow id="pFlow16" begin="0" end="10000" number="400">
        <walk edges="1084114753#6 1084114753#5 1084114762 1084114753#1 1084114753#0 862365675#1 862365675#0 862365706#0 862365706#1 862365709 862365669#0 862365669#1 862365731#3 862365731#2"/>
    </personFlow>

</routes>