<?xml version="1.0" encoding="UTF-8"?>

<!-- generated on 2024-11-22 11:55:44.113344 by randomTrips.py v1_20_0+0002-343658e7c64
<configuration>
    <net-file value="C:\VehicleSim\My project\Assets\_Project\Sumo_Data\SUMO2Unity.net.xml"/>
    <output-trip-file value="C:\VehicleSim\My project\Assets\_Project\Sumo_Data\SUMO2UnityPed.rou.xml"/>
    <route-file value="C:\VehicleSim\My project\Assets\_Project\Sumo_Data\SUMO2UnityPed.rou.xml"/>
    <pedestrians value="True"/>
    <persontrips value="True"/>
    <allow-fringe value="True"/>
    <seed value="2"/>
    <remove-loops value="True"/>
    <validate value="True"/>
</configuration>
-->

<!-- generated on 2024-11-22 11:55:44 by Eclipse SUMO duarouter Version 1.20.0
<configuration xmlns:xsi="http://www.w3.org/2001/XMLSchema-instance" xsi:noNamespaceSchemaLocation="http://sumo.dlr.de/xsd/duarouterConfiguration.xsd">

    <input>
        <net-file value="C:\VehicleSim\My project\Assets\_Project\Sumo_Data\SUMO2Unity.net.xml"/>
        <route-files value="C:\VehicleSim\My project\Assets\_Project\Sumo_Data\SUMO2UnityPed.rou.xml"/>
    </input>

    <output>
        <output-file value="C:\VehicleSim\My project\Assets\_Project\Sumo_Data\SUMO2UnityPed.rou.xml.tmp"/>
        <alternatives-output value="NUL"/>
        <write-trips value="true"/>
    </output>

    <processing>
        <remove-loops value="true"/>
    </processing>

    <time>
        <begin value="0"/>
        <end value="3600"/>
    </time>

    <report>
        <no-warnings value="true"/>
        <ignore-errors value="true"/>
        <no-step-log value="true"/>
    </report>

</configuration>
-->

<routes xmlns:xsi="http://www.w3.org/2001/XMLSchema-instance" xsi:noNamespaceSchemaLocation="http://sumo.dlr.de/xsd/routes_file.xsd">
    <person id="0" depart="0.00">
        <walk edges="862365731#1 1296744665#1 1296744665#0 1296744666#2 1296744666#1 1296744666#0 1296744669#1 1296744669#0 862365731#2 862365731#3 862365669#1 862365669#0 862365709 862365655#0 862365655#1 862365722"/>
    </person>
    <person id="1" depart="1.00">
        <walk edges="-20138226#1 1296744660#3 1296744661#0 1296744661#1 1084114753#3 1084114753#2 1084114753#1 1084114753#0 862365677#0 -676684199#5 862365681#1 862365692#1 862365668#1 862365655#0 862365709 862365669#0 321695455#3 -321695455#3"/>
    </person>
    <person id="4" depart="4.00">
        <walk edges="1296744680#0"/>
    </person>
    <person id="5" depart="5.00">
        <walk edges="1296744669#0 1296744669#1 1296744666#0 1296744666#1 1296744666#2 1296744665#0 1296744665#1 862365731#0 1296744664#0 755058162#1 755058162#0 770743219#0 -770743219#0"/>
    </person>
    <person id="8" depart="8.00">
        <walk edges="862365722 862365655#1 862365655#0 862365709 862365669#0 862365669#1 862365731#3 862365731#2 1296744669#0 1296744669#1 1296744666#0 1296744666#1 1296744666#2 1296744666#3"/>
    </person>
    <person id="9" depart="9.00">
        <walk edges="1296744657#1 1084114753#7 1084114765#0"/>
    </person>
    <person id="10" depart="10.00">
        <walk edges="-1219391682#1 1296744666#5 1296744666#4 -755058162#1 1296744664#1 1084114753#9 -1219391681"/>
    </person>
    <person id="13" depart="13.00">
        <walk edges="1296744665#1 1296744665#0 1296744666#2 1296744666#1 1296744666#0 1296744669#1 1296744667#3 1296744667#2"/>
    </person>
    <person id="14" depart="14.00">
        <walk edges="1084114757 -1084114756#1 1084114753#6 1084114753#7 1296744657#1 1296744663#1 1296744666#6 1296744666#5 -1219391680#1"/>
    </person>
    <person id="16" depart="16.00">
        <walk edges="1296744663#1 1296744657#1 1084114753#7 1084114753#6 1084114753#5 1084114753#4 1084114753#3 1084114753#2 1084114753#1 1084114753#0 862365677#0 -676684199#5 862365681#1 862365692#1 862365668#1 20151640#1 20151640#2 910770958#2 910770958#1 910770959"/>
    </person>
    <person id="17" depart="17.00">
        <walk edges="20150770#2 -20150770#2 20142547 20137147#0 20136299#2 20136299#1 20136299#0 20151640#1 862365668#1 862365692#1 862365681#1 -676684199#5 862365677#0 1084114753#0 1084114753#1"/>
    </person>
    <person id="18" depart="18.00">
        <walk edges="862365677#1 -676684199#5 862365681#1 862365692#1 862365668#1 862365655#0 862365709 862365669#0 862365669#1 862365731#3 862365731#2 1296744669#0 1296744669#1 1296744666#0 1296744666#1 -755058161#0 770743218"/>
    </person>
    <person id="20" depart="20.00">
        <walk edges="755058162#0 -755058162#0 -755058162#1 1296744664#0 862365731#0 1296744665#1 1296744665#0 1296744666#2 -755058161#0 770743217#0"/>
    </person>
    <person id="22" depart="22.00">
        <walk edges="862365731#2 1296744669#0 1296744669#1 1296744666#0 1296744666#1 1296744666#2 1296744665#0 1296744665#1 862365731#0 1296744664#0 755058162#1 755058162#0 -770743219#1"/>
    </person>
    <person id="23" depart="23.00">
        <walk edges="755058160#1 1296744666#0 1296744669#1 1296744669#0 862365731#2 862365731#3 862365669#1 321695455#3"/>
    </person>
    <person id="24" depart="24.00">
        <walk edges="1296744659#0 1084114753#2 1084114753#1 1084114753#0 862365677#0 -676684199#5 862365681#1 862365692#1 862365668#1 862365655#0 862365709 862365669#0 862365669#1 862365731#3 862365731#2 1296744669#0 1296744669#1 1296744666#0"/>
    </person>
    <person id="25" depart="25.00">
        <walk edges="1296744661#0 1296744661#1 1084114753#3 1296744659#0 1296744659#1 1084114760#0 862365683#1 862365683#0 862365685"/>
    </person>
    <person id="26" depart="26.00">
        <walk edges="1296744662 1296744661#0 1296744661#1 1084114753#3 1084114753#2 1084114753#1 1084114753#0 862365677#0 -676684199#5 862365681#1 862365692#1 862365668#1 862365655#0 862365709 862365669#0 862365669#1 862365731#3 862365621#1 862365623#1"/>
    </person>
    <person id="28" depart="28.00">
        <walk edges="862365678#0 862365677#0 1084114753#0 1084114753#1 1084114753#2 1296744659#0"/>
    </person>
    <person id="29" depart="29.00">
        <walk edges="1296744667#3 1296744669#0 862365731#2 862365731#3 862365669#1 862365669#0 862365709 862365655#0 862365668#1 862365692#1 862365681#1 -676684199#5 862365677#1 862365685 862365683#0 862365683#1"/>
    </person>
    <person id="32" depart="32.00">
        <walk edges="321695453#0 1296744660#1 -910707874#1"/>
    </person>
    <person id="33" depart="33.00">
        <walk edges="862365681#0 862365706#0 862365675#0 862365675#1 1084114753#0 1084114753#1 1084114753#2 1084114753#3 1296744661#1 1296744661#0 1296744660#3 1296744660#2 1296744660#1 -910707874#1 1084114765#0"/>
    </person>
    <person id="35" depart="35.00">
        <walk edges="862365731#1 862365731#0 1296744664#0 -755058162#1 1296744666#4 1296744666#5 1296744666#6 1296744663#1 1296744657#1 1084114753#7 1084114765#0 -910707874#1 1296744660#1 321695453#1"/>
    </person>
    <person id="36" depart="36.00">
        <walk edges="1296744663#0 1296744663#1 1296744666#6 1296744666#5 1296744666#4 -755058162#1 1296744664#1"/>
    </person>
    <person id="37" depart="37.00">
        <walk edges="20138226#1 1296744660#2 1296744660#1 -910707874#1 1084114765#0 1084114753#7 1296744657#1 1296744663#1 1296744666#6 1296744666#5 1296744666#4 -755058162#1 1296744664#0 862365731#0 1296744665#1 1296744665#0 1296744666#2 1296744666#1 1296744666#0 1296744668 1296744678#0"/>
    </person>
    <person id="39" depart="39.00">
        <walk edges="1296744664#0 -755058162#1 1296744666#4 1296744666#5 1296744666#6 1296744663#1 1296744657#1 1084114753#7 1084114753#6 1084114753#5 1084114753#4 1084114753#3 1084114753#2 1084114753#1 1084114753#0 862365675#1 862365675#0 862365706#0"/>
    </person>
    <person id="42" depart="42.00">
        <walk edges="862365681#0 862365706#0 862365675#0 862365675#1 1084114753#0 1084114753#1 1084114753#2 1084114753#3"/>
    </person>
    <person id="43" depart="43.00">
        <walk edges="676684224#4 770743208#0 1296744667#3 1296744669#0 862365731#2 862365731#3 862365669#1 862365669#0 862365709 862365655#0 862365668#1 862365692#1 862365681#1 -676684199#5 -20143440#2"/>
    </person>
    <person id="44" depart="44.00">
        <walk edges="20138226#1 1296744660#2 1296744660#1 -910707874#1 1084114765#0 1084114765#1"/>
    </person>
    <person id="45" depart="45.00">
        <walk edges="1084114754 1084114753#0 862365677#0 -676684199#5 862365681#1 862365692#1 862365668#1 862365655#0 862365709 862365673#0"/>
    </person>
    <person id="47" depart="47.00">
        <walk edges="862365668#0 862365668#1 862365692#1 862365681#1 -676684199#5 862365677#0 1084114753#0 1084114753#1 1084114753#2 1296744659#0 1084114758#1 1084114759#0"/>
    </person>
    <person id="48" depart="48.00">
        <walk edges="1084114753#7 1084114753#6 1084114753#5 1084114753#4 1084114753#3 1084114753#2 1084114753#1 1084114753#0 862365675#1 862365675#0"/>
    </person>
    <person id="49" depart="49.00">
        <walk edges="1296744655#0 1084114759#1 1084114758#1 1296744659#0 1084114753#2 1084114753#1 1084114753#0 862365677#0 630958791#1"/>
    </person>
    <person id="51" depart="51.00">
        <walk edges="-910770959 910770958#2 20137147#1 20137147#0 20142547 -20150770#2 20150770#2"/>
    </person>
    <person id="52" depart="52.00">
        <walk edges="-321695455#2 862365669#1 862365731#3 862365731#2 1296744669#0 1296744669#1 1296744666#0 1296744666#1 1296744666#2 1296744665#0 1296744665#1 862365731#0"/>
    </person>
    <person id="54" depart="54.00">
        <walk edges="-1084114765#1 1084114753#6 1084114753#5 1084114753#4 1084114753#3 1296744659#0 1296744659#1 1084114760#0"/>
    </person>
    <person id="55" depart="55.00">
        <walk edges="862365621#1 862365731#2 1296744669#0 1296744669#1 1296744666#0 1296744666#1 1296744666#2 1296744665#0 1296744665#1 862365731#0 1296744664#0 -755058162#1 755058162#0 770743219#0 -770743219#0"/>
    </person>
    <person id="56" depart="56.00">
        <walk edges="1084114753#10 1296744664#1 20153086#1"/>
    </person>
    <person id="58" depart="58.00">
        <walk edges="910770958#1 910770958#2 20151640#2 20151640#1 862365655#0 862365709 862365669#0 862365669#1 862365731#3 862365731#2 1296744669#0 1296744669#1 1296744666#0 1296744666#1 -755058161#0 -770743218"/>
    </person>
    <person id="60" depart="60.00">
        <walk edges="1296744681#0 1296744678#0 1296744668 1296744669#1 1296744667#3 -770743208#0 676684224#4"/>
    </person>
    <person id="62" depart="62.00">
        <walk edges="-1219391681 1084114753#8 1296744657#1"/>
    </person>
    <person id="63" depart="63.00">
        <walk edges="755058162#1 1296744666#4 1296744666#5 1296744666#6 1296744663#1 1296744657#1 1084114753#7 1084114753#6 1084114753#5 1084114753#4 1084114753#3 1084114753#2 1084114753#1 1084114753#0 862365677#0 -676684199#5 676684199#5"/>
    </person>
    <person id="64" depart="64.00">
        <walk edges="862365678#0 -676684199#5 862365681#1 862365692#1 862365668#1 862365655#0 862365709 862365669#0 862365669#1 862365731#3 862365731#2 1296744669#0 1296744669#1 1296744666#0 1296744666#1 755058161#0"/>
    </person>
    <person id="65" depart="65.00">
        <walk edges="862365669#0 862365709 862365655#0 862365668#1 862365692#1 862365681#1 -676684199#5 862365677#0 1084114753#0 1084114753#1 1084114753#2 1084114753#3 1296744661#1 1296744661#0 1296744660#3 1296744660#2 321695453#1"/>
    </person>
    <person id="66" depart="66.00">
        <walk edges="1296744660#1 1296744660#2 1296744660#3 1296744661#0 1296744661#1 1084114753#3 1084114753#2 1084114753#1 1084114754"/>
    </person>
    <person id="69" depart="69.00">
        <walk edges="862365673#0 862365669#0 862365669#1 862365731#3 862365731#2 1296744669#0 1296744669#1 1296744666#0 1296744666#1 1296744666#2 1296744665#0 1296744665#1 862365731#0 1296744664#0 -755058162#1 -755058162#0"/>
    </person>
    <person id="71" depart="71.00">
        <walk edges="1296744664#0 862365731#0 1296744665#1 1296744665#0 1296744666#2 -755058161#0 770743218 -770743217#0"/>
    </person>
    <person id="72" depart="72.00">
        <walk edges="862365731#1 862365731#0 1296744664#0 -755058162#1 1296744666#4 1296744666#5 1296744666#6 1296744663#1 1296744657#1 1084114753#7 1084114753#6 1084114753#5 1084114753#4 1084114753#3 1296744659#0 1296744659#1 1084114760#0 1084114760#1"/>
    </person>
    <person id="73" depart="73.00">
        <walk edges="1296744680#0 1296744681#1 1296744678#0 1296744668 1296744666#0 1296744666#1 1296744666#2 1296744665#0 1296744665#1 862365731#0 1296744664#0 -755058162#1 1296744666#4 1296744666#5 1219391682#1"/>
    </person>
    <person id="74" depart="74.00">
        <walk edges="-1084114765#1 1084114753#7 1296744657#1 1296744663#1 1296744666#6"/>
    </person>
    <person id="75" depart="75.00">
        <walk edges="-770743208#0 1296744667#3 1296744669#1 1296744666#0 1296744666#1 1296744666#2 1296744665#0 1296744665#1 862365731#0 1296744664#0 755058162#1 1296744666#4 1296744666#5 1296744666#6 1296744663#1 1296744657#1 1084114753#7 1084114765#0 -910707874#1 1296744660#1 1296744660#2 -20138226#1"/>
    </person>
    <person id="76" depart="76.00">
        <walk edges="-1219391682#0 1296744666#5 1296744666#4 755058162#0 -770743219#1"/>
    </person>
    <person id="78" depart="78.00">
        <walk edges="1296744663#1 1296744657#1 1084114753#7 1084114753#6 1084114753#5 1084114753#4 1084114753#3 1084114753#2 1084114753#1 1084114753#0 862365677#0 -676684199#5 862365681#1 862365692#1 862365668#1 20151640#1 20151640#2 910770958#0"/>
    </person>
    <person id="79" depart="79.00">
        <walk edges="862365706#0 862365675#0 862365675#1 862365677#0 -676684199#5 862365681#1 862365692#1 862365668#1 20151640#1 20151640#2 910770958#2"/>
    </person>
    <person id="80" depart="80.00">
        <walk edges="1084114756#2 -1084114756#1 1084114753#6 1084114753#7 1296744657#1"/>
    </person>
    <person id="81" depart="81.00">
        <walk edges="1084114759#1 1084114758#1 1296744659#0 1084114753#2 1084114753#1 1084114753#0 862365677#0 -676684199#5 862365681#1 862365692#1 862365668#1 862365655#0 862365709 862365669#0 862365669#1 862365731#3 862365731#2 1296744669#0 1296744669#1 1296744668 1296744678#0 1296744678#1"/>
    </person>
    <person id="83" depart="83.00">
        <walk edges="321695455#2 862365673#0 862365709 862365655#0 862365668#1 862365692#1 862365681#1 -676684199#5 862365677#0 1084114753#0 1084114753#1 1084114753#2 1296744659#0 1296744659#1 1084114760#0"/>
    </person>
    <person id="84" depart="84.00">
        <walk edges="1296744655#0 1084114759#1 1084114758#1 1296744659#0 1084114753#3 1084114753#4 1084114753#5 1084114753#6 1084114753#7 1296744657#1 1296744663#1 1296744666#6 1296744666#5 1296744666#4 -755058162#1 1296744664#0 862365731#0 1296744665#1"/>
    </person>
    <person id="85" depart="85.00">
        <walk edges="-1084114756#2 1084114756#2 -1084114756#1 1084114753#6 1084114753#7 1296744657#1 1296744663#1 1296744666#6 -1219391682#0"/>
    </person>
    <person id="86" depart="86.00">
        <walk edges="1219391680#1 1296744666#4 -755058162#1 1296744664#0 862365731#0 1296744665#1 1296744665#0 1296744666#2 1296744666#1 1296744666#0 1296744669#1 1296744667#3 1296744667#2 -770743205#0 -676684224#4"/>
    </person>
    <person id="89" depart="89.00">
        <walk edges="1084114756#2 -1084114756#1 1084114753#6 1084114753#7 1084114753#8"/>
    </person>
    <person id="90" depart="90.00">
        <walk edges="1296744665#0 1296744665#1 862365731#0 1296744664#0 -755058162#1 1296744666#4 1296744666#5 1296744666#6 1296744663#1 1296744657#1 1084114753#7 1084114753#6 1084114753#5 1084114753#4 1084114753#3 1296744659#0 1296744659#1"/>
    </person>
    <person id="92" depart="92.00">
        <walk edges="1084114753#7 1084114753#6 1084114753#5 1084114753#4 1084114753#3 1084114753#2 1084114753#1 1084114753#0 862365677#0 862365678#1"/>
    </person>
    <person id="94" depart="94.00">
        <walk edges="1296744656#0 20153086#1 1296744664#0"/>
    </person>
    <person id="95" depart="95.00">
        <walk edges="1296744669#0 862365731#2 862365731#3 862365669#1 862365669#0 862365709 862365655#0 20151640#1 20151640#2 -20137147#1"/>
    </person>
    <person id="96" depart="96.00">
        <walk edges="1219391682#1 1296744666#5 1296744666#4 -755058162#1 1296744664#0 862365731#0 1296744665#1"/>
    </person>
    <person id="99" depart="99.00">
        <walk edges="1296744664#1 -755058162#1 1296744666#4 1296744666#5 1296744666#6 1296744663#1 1296744657#1 1084114753#7 1084114753#6 1084114753#5 1084114753#4 1084114753#3 1296744659#0 1296744659#1 1084114760#0 862365683#1"/>
    </person>
    <person id="102" depart="102.00">
        <walk edges="-1084114765#1 1084114753#7 1296744657#1 1296744663#1 1296744666#6 1296744666#5 1296744666#4 -755058162#1 20153086#1 20153086#0"/>
    </person>
    <person id="104" depart="104.00">
        <walk edges="862365624#1 321082028#9 862365621#1 862365731#3 862365669#1 862365669#0 862365709 862365655#0 20151640#1 20136299#0 20136299#1 20136299#2 20137147#0 20142547 -20150770#2 20150770#2"/>
    </person>
    <person id="105" depart="105.00">
        <walk edges="-1084114765#0 1084114753#6 1084114753#5 1084114753#4 1084114753#3 1296744659#0 1296744659#1 1296744658#0"/>
    </person>
    <person id="106" depart="106.00">
        <walk edges="1219391681 1084114753#8 1084114753#7 1084114765#0 910707874#1 1296744660#1 1296744660#2 1296744660#3 1296744660#4"/>
    </person>
    <person id="107" depart="107.00">
        <walk edges="1084114753#6 1084114753#7 1296744657#1 1296744663#1 1296744666#6 1296744666#5 1296744666#4 -755058162#1 1296744664#0 862365731#0 1296744665#1 1296744665#0 1296744666#2 1296744666#1 1296744666#0 1296744668 1296744678#0"/>
    </person>
    <person id="110" depart="110.00">
        <walk edges="-321082028#9 862365621#1 862365731#2 1296744669#0 1296744669#1 1296744666#0 755058160#1"/>
    </person>
    <person id="111" depart="111.00">
        <walk edges="1084114753#3 1084114753#2 1084114753#1 1084114753#0 862365677#0 -676684199#5 862365681#1 862365692#1 862365668#1 862365655#0 862365709 862365669#0 862365669#1 862365731#3 862365731#2 1296744669#0 1296744667#4"/>
    </person>
    <person id="114" depart="114.00">
        <walk edges="-755058161#0"/>
    </person>
    <person id="115" depart="115.00">
        <walk edges="-321695455#2 862365669#0 862365709 862365655#0 862365655#1"/>
    </person>
    <person id="116" depart="116.00">
        <walk edges="20137147#0 20136299#2 20136299#1 20136299#0 20151640#1 862365655#0 862365709 862365669#0 862365669#1 862365731#3 862365731#2 1296744669#0 1296744669#1 1296744666#0 1296744666#1 1296744666#2 1296744665#0 1296744665#1 862365731#1"/>
    </person>
    <person id="117" depart="117.00">
        <walk edges="20153086#1 -755058162#1 1296744666#4 -1219391680#1"/>
    </person>
    <person id="118" depart="118.00">
        <walk edges="20143440#2 862365675#1 862365677#0 -676684199#5 862365681#1 862365692#1 862365668#1 862365655#0 862365709 862365669#0 862365669#1 862365731#3 862365731#2 1296744669#0 1296744667#3 770743208#0"/>
    </person>
    <person id="121" depart="121.00">
        <walk edges="770743218 755058161#0 1296744666#2 1296744665#0 1296744665#1 862365731#0 1296744664#0 -755058162#1 1296744666#4 1296744666#5 1296744666#6 1296744663#1 1296744657#1 1084114753#7 1084114765#0"/>
    </person>
    <person id="122" depart="122.00">
        <walk edges="1296744665#1 862365731#0 1296744664#0 -755058162#1 1296744666#4 1296744666#5 1296744666#6 1296744663#1 1296744657#1 1084114753#7 1084114765#0 -910707874#1 1296744660#1 1296744660#2"/>
    </person>
    <person id="123" depart="123.00">
        <walk edges="862365731#0 1296744664#0 -755058162#1 755058162#0 770743219#0"/>
    </person>
    <person id="124" depart="124.00">
        <walk edges="862365692#1 862365668#1 862365655#0 862365709 862365669#0 862365669#1 862365731#3 862365621#1 862365621#0 862365624#0"/>
    </person>
    <person id="126" depart="126.00">
        <walk edges="1296744660#4 1296744661#0 1296744661#1 1084114753#3 1296744659#0 1296744659#1 1084114760#0 1084114760#1"/>
    </person>
    <person id="127" depart="127.00">
        <walk edges="1296744655#1 1084114759#1 1084114758#1 1296744659#0 1084114753#2 1084114753#1 1084114753#0 862365677#0 -676684199#5 862365681#1 862365692#1 862365668#1 20151640#1"/>
    </person>
    <person id="128" depart="128.00">
        <walk edges="862365683#0 862365685 862365677#1 -676684199#5 862365681#1 862365692#1 862365668#1 862365655#0 862365709 862365669#0 862365669#1 862365731#3 862365731#2 1296744669#0 1296744669#1"/>
    </person>
    <person id="131" depart="131.00">
        <walk edges="-770743217#0 -770743218 -755058161#0 1296744666#2 1296744665#0 1296744665#1 862365731#0 1296744664#0 -755058162#1 1296744666#4 1296744666#5 1219391682#0"/>
    </person>
    <person id="133" depart="133.00">
        <walk edges="862365677#1 -676684199#5 862365681#1 862365692#1 862365668#1 20151640#1 20151640#2 910770958#2 910770958#1"/>
    </person>
    <person id="134" depart="134.00">
        <walk edges="20137147#1 20136299#2 20136299#1 20136299#0 20151640#1 862365655#0 862365709 862365669#0 862365669#1 862365731#3 862365731#2 1296744669#0 1296744669#1 1296744666#0 1296744666#1 1296744666#2 1296744665#0 1296744665#1 862365731#0 1296744664#0 -755058162#1 -755058162#0"/>
    </person>
    <person id="137" depart="137.00">
        <walk edges="1296744656#1 1296744656#0 20153086#1 1296744664#0 862365731#0 1296744665#1 1296744665#0"/>
    </person>
    <person id="138" depart="138.00">
        <walk edges="-676684224#4 770743205#0 1296744667#2 1296744667#3 1296744669#1 1296744666#0 1296744666#1 1296744666#2"/>
    </person>
    <person id="139" depart="139.00">
        <walk edges="862365722 862365655#1 862365655#0 862365709 862365669#0 862365669#1 862365731#3 862365731#2 1296744669#0 1296744669#1 1296744666#0 1296744666#1 755058161#0"/>
    </person>
    <person id="141" depart="141.00">
        <walk edges="321695455#3 862365669#0 862365709 862365655#0 862365668#1 862365692#1 862365681#1 -676684199#5 862365677#0 1084114753#0 1084114753#1 1084114753#2 1296744659#0 1296744659#1 1084114760#0"/>
    </person>
    <person id="142" depart="142.00">
        <walk edges="862365677#1 862365677#0 1084114753#0 1084114753#1 1084114753#2 1296744659#0"/>
    </person>
    <person id="144" depart="144.00">
        <walk edges="910770958#2 20151640#2 20151640#1 862365655#0 862365709 862365669#0 862365669#1 862365731#3 862365731#2 1296744669#0 1296744669#1 1296744666#0 -755058160#1 770743216#0 770743216#1"/>
    </person>
    <person id="145" depart="145.00">
        <walk edges="1296744668 1296744666#0 1296744666#1 -755058161#0 770743218 -770743217#0"/>
    </person>
    <person id="146" depart="146.00">
        <walk edges="1296744657#0 1296744657#1 1084114753#8 -1219391681"/>
    </person>
    <person id="147" depart="147.00">
        <walk edges="1296744678#1 1296744678#0 1296744668 1296744669#1 1296744669#0 862365731#2 862365731#3 862365669#1 862365669#0 862365709 862365655#0 862365668#1 862365692#1 862365681#1 -676684199#5 862365677#0 862365675#1 862365675#0"/>
    </person>
    <person id="148" depart="148.00">
        <walk edges="1084114753#1 1084114753#2 1084114753#3 1084114753#4 1084114753#5 1084114753#6 1084114753#7 1296744657#1 1296744663#1"/>
    </person>
    <person id="149" depart="149.00">
        <walk edges="1296744660#3 1296744660#2 1296744660#1 -910707874#1 1084114765#0 1084114753#7 1296744657#1 1296744663#1 1296744666#6 1296744666#5 1219391680#1"/>
    </person>
    <person id="150" depart="150.00">
        <walk edges="321695455#2 862365673#0 862365709 862365655#0 862365668#1 862365692#1 862365681#1 -676684199#5 862365677#0 862365675#1 862365675#0 862365706#0"/>
    </person>
    <person id="151" depart="151.00">
        <walk edges="321695453#1 1296744660#1"/>
    </person>
    <person id="153" depart="153.00">
        <walk edges="676684224#4 770743208#0 1296744667#3 1296744669#0 862365731#2 862365731#3 862365669#1 862365669#0 862365709 862365655#0 862365668#1 862365692#1 862365681#1 -676684199#5 862365677#0 862365675#1 20143440#2"/>
    </person>
    <person id="154" depart="154.00">
        <walk edges="755058162#0 -755058162#0 -755058162#1 1296744664#0 862365731#0 1296744665#1 1296744665#0 1296744666#2 1296744666#1 1296744666#0 1296744669#1 1296744669#0 862365731#2 862365731#3 862365669#1 862365669#0 862365709 862365655#0 862365655#1"/>
    </person>
    <person id="155" depart="155.00">
        <walk edges="1084114754 1084114753#0 862365677#0 -676684199#5 862365681#1 862365692#1 862365668#1 862365655#0 862365709 862365669#0 862365669#1 862365731#3 862365731#2 1296744669#0 1296744669#1 1296744668 1296744678#0 1296744681#1"/>
    </person>
    <person id="158" depart="158.00">
        <walk edges="-1084114757 -1084114756#1 1084114753#5 1084114753#4 1084114753#3 1296744659#0 1296744659#1"/>
    </person>
    <person id="159" depart="159.00">
        <walk edges="321695455#3 862365669#0 862365709 862365655#0 862365668#1 862365692#1 862365681#1 -676684199#5 862365677#0 862365675#1 862365675#0"/>
    </person>
    <person id="160" depart="160.00">
        <walk edges="20138226#1 1296744660#2 1296744660#1 -910707874#1 1084114765#0 1084114753#7 1296744657#1 1296744663#1 1296744666#6 1296744666#5 1296744666#4 -755058162#1 1296744664#0 862365731#0 1296744665#1 1296744665#0 1296744666#2 1296744666#1 1296744666#0 1296744669#1 1296744669#0 862365731#2 862365621#1"/>
    </person>
    <person id="161" depart="161.00">
        <walk edges="-1084114765#0 1084114753#6 1084114753#5 1084114753#4 1084114753#3 1084114753#2 1084114753#1 1084114753#0 862365677#0 -676684199#5 862365681#1 862365692#1 862365668#1 862365655#0 862365709"/>
    </person>
    <person id="163" depart="163.00">
        <walk edges="862365678#1 862365677#0 862365675#1"/>
    </person>
    <person id="165" depart="165.00">
        <walk edges="755058162#1 1296744666#4 1296744666#5 1296744666#6 1296744663#1 1296744657#1 1084114753#7 1084114753#6 1084114753#5 1084114753#4"/>
    </person>
    <person id="166" depart="166.00">
        <walk edges="676684224#4 770743208#0 1296744667#3 1296744669#1"/>
    </person>
    <person id="167" depart="167.00">
        <walk edges="1084114753#3 1084114753#4 1084114753#5 1084114753#6 1084114753#7 1296744657#1 1296744663#1 1296744666#6 1296744666#5 1296744666#4 755058162#0 770743219#0"/>
    </person>
    <person id="168" depart="168.00">
        <walk edges="-770743208#0 1296744667#3 1296744669#1 1296744668 1296744678#0 1296744680#1"/>
    </person>
    <person id="169" depart="169.00">
        <walk edges="1296744656#0 20153086#1 -755058162#1 1296744666#4 1296744666#5 1296744666#6 1296744663#1 1296744657#1 1084114753#7 1084114753#6 1084114753#5 1084114753#4 1084114753#3 1296744659#0 1296744659#1 1084114760#0"/>
    </person>
    <person id="170" depart="170.00">
        <walk edges="1296744667#3 1296744669#1 1296744666#0 1296744666#1 1296744666#2 1296744665#0 1296744665#1 862365731#0 1296744664#0 755058162#1 1296744666#4 1296744666#5 1296744666#6 1296744663#1 1296744657#0 1296744660#0"/>
    </person>
    <person id="171" depart="171.00">
        <walk edges="1084114753#6 1084114753#5 1084114753#4 1084114753#3 1084114753#2 1084114753#1 1084114753#0 862365677#0 -676684199#5 862365681#1 862365692#1 862365668#1 862365655#0 862365709 862365669#0 862365669#1 862365731#3"/>
    </person>
    <person id="172" depart="172.00">
        <walk edges="-20150770#2 20142547 20137147#0 20136299#2 20136299#1 20136299#0 20151640#1 862365668#1 862365692#1 862365681#1 -676684199#5 862365677#0 1084114753#0 1084114753#1 1084114753#2 1084114753#3 1084114753#4 1084114753#5 -1084114756#1"/>
    </person>
    <person id="173" depart="173.00">
        <walk edges="1296744660#4 1296744661#0 1296744661#1 1084114753#3 1084114753#2 1084114753#1 1084114753#0 862365677#0 -676684199#5 862365681#1 862365692#1 862365668#1 862365655#0 862365709 862365669#0 862365669#1 862365731#3 862365621#1 862365621#0 862365624#0"/>
    </person>
    <person id="174" depart="174.00">
        <walk edges="20143440#2 862365675#1 862365677#0 -676684199#5 862365681#1 862365692#1 862365668#1 862365655#0 862365709 862365669#0 862365669#1 862365731#3 862365731#2 1296744669#0 1296744669#1 1296744666#0 755058160#1"/>
    </person>
    <person id="175" depart="175.00">
        <walk edges="1296744660#4 1296744661#0 1296744661#1 1084114753#3 1084114753#2 1084114753#1 1084114753#0 862365677#0 -676684199#5 862365681#1 862365692#1 862365668#1 20151640#1 20136299#0 20136299#1 20136299#2 20137147#0 20142547 -20150770#2 20150770#2"/>
    </person>
    <person id="177" depart="177.00">
        <walk edges="1296744663#0 1084114753#8 -1219391681"/>
    </person>
    <person id="178" depart="178.00">
        <walk edges="-321082028#9 862365621#1 862365731#2 1296744669#0 1296744669#1 1296744666#0 755058160#1"/>
    </person>
    <person id="180" depart="180.00">
        <walk edges="770743216#1 770743216#0 -755058160#1 1296744666#1 1296744666#2 1296744665#0 1296744665#1 862365731#0 1296744664#0 -755058162#1 1296744666#4 1219391680#1"/>
    </person>
    <person id="181" depart="181.00">
        <walk edges="20150770#2 -20150770#2 20142547 20137147#0 20136299#2 20136299#1 20136299#0 20151640#1 862365655#0 862365709 862365669#0 862365669#1 862365731#3 862365731#2 1296744669#0 1296744669#1 1296744666#0 1296744666#1 -755058161#0 770743217#0"/>
    </person>
    <person id="182" depart="182.00">